<additional><inductionLoop id="rsu_0" lane="840848451#6_0" pos="74.385" freq="1" file="ev_detection_output.xml" /><inductionLoop id="rsu_1" lane="840848451#7_0" pos="83.185" freq="1" file="ev_detection_output.xml" /><inductionLoop id="rsu_2" lane="1201246962#0_0" pos="29.825" freq="1" file="ev_detection_output.xml" /><inductionLoop id="rsu_3" lane="-1201246966#7_0" pos="7.255" freq="1" file="ev_detection_output.xml" /><inductionLoop id="rsu_4" lane="-1201246962#0_0" pos="29.825" freq="1" file="ev_detection_output.xml" /><inductionLoop id="rsu_5" lane="840848451#8_0" pos="136.915" freq="1" file="ev_detection_output.xml" /></additional>

