<?xml version="1.0" encoding="UTF-8"?>

<!-- generated on 2025-04-21 20:27:24.028231 by osmWebWizard.py v1_19_0+0000-baa66a0f364
<configuration>
    <net-file value="C:\Users\revat\Sumo\2025-04-21-20-27-16\osm.net.xml.gz"/>
    <output-trip-file value="C:\Users\revat\Sumo\2025-04-21-20-27-16\osm.passenger.trips.xml"/>
    <route-file value="C:\Users\revat\Sumo\2025-04-21-20-27-16\osm.passenger.rou.xml"/>
    <prefix value="veh"/>
    <trip-attributes value="departLane=&quot;best&quot;"/>
    <fringe-start-attributes value="departSpeed=&quot;max&quot;"/>
    <vehicle-class value="passenger"/>
    <lanes value="True"/>
    <fringe-factor value="100"/>
    <allow-fringe.min-length value="1000.0"/>
    <via-edge-types value="highway.motorway,highway.motorway_link,highway.trunk_link,highway.primary_link,highway.secondary_link,highway.tertiary_link"/>
    <min-distance value="300.0"/>
    <min-distance.fringe value="10.0"/>
    <remove-loops value="True"/>
    <validate value="True"/>
    <insertion-density value="12.0"/>
</configuration>
-->

<!-- generated on 2025-04-21 20:27:23 by Eclipse SUMO duarouter Version 1.19.0
<configuration xmlns:xsi="http://www.w3.org/2001/XMLSchema-instance" xsi:noNamespaceSchemaLocation="http://sumo.dlr.de/xsd/duarouterConfiguration.xsd">

    <input>
        <net-file value="C:\Users\revat\Sumo\2025-04-21-20-27-16\osm.net.xml.gz"/>
        <route-files value="C:\Users\revat\Sumo\2025-04-21-20-27-16\osm.passenger.trips.xml"/>
    </input>

    <output>
        <output-file value="C:\Users\revat\Sumo\2025-04-21-20-27-16\osm.passenger.trips.xml.tmp"/>
        <alternatives-output value="NUL"/>
        <write-trips value="true"/>
    </output>

    <processing>
        <remove-loops value="true"/>
    </processing>

    <time>
        <begin value="0.0"/>
        <end value="3600.0"/>
    </time>

    <report>
        <no-warnings value="true"/>
        <ignore-errors value="true"/>
        <no-step-log value="true"/>
    </report>

</configuration>
-->

<routes xmlns:xsi="http://www.w3.org/2001/XMLSchema-instance"
        xsi:noNamespaceSchemaLocation="http://sumo.dlr.de/xsd/routes_file.xsd">

    <!-- Fix #2: Define missing vehicle type -->
    <vType id="veh_passenger" vClass="passenger"/>
   <vType id="ambulance" vClass="emergency" speedFactor="1.2" maxSpeed="25.0" color="255,0,0"/>

<flow id="ambulanceFlow_lane1201246962" type="ambulance" begin="100" end="600"
      number="5" from="840848456#1" to="-1201246968#0" color="139,0,0"/>

    <trip id="veh0" type="veh_passenger" depart="0.00" departLane="best" departSpeed="max" from="840848451#0" to="-1201246966#7"/>
    <trip id="veh1" type="veh_passenger" depart="5.19" departLane="best" departSpeed="max" from="840848456#0" to="38448527#9"/>
    <trip id="veh2" type="veh_passenger" depart="10.39" departLane="best" departSpeed="max" from="840848456#0" to="-201235403#1"/>
    <trip id="veh3" type="veh_passenger" depart="15.58" departLane="best" departSpeed="max" from="38448527#0" to="-1201246968#0"/>
    <trip id="veh4" type="veh_passenger" depart="20.77" departLane="best" from="-201231594#6" to="38448527#9"/>
    <trip id="veh5" type="veh_passenger" depart="25.97" departLane="best" from="-1201246969#1" to="840853045#3"/>
    <trip id="veh6" type="veh_passenger" depart="31.16" departLane="best" from="840848451#4" to="38448527#9"/>
    <trip id="veh7" type="veh_passenger" depart="36.36" departLane="best" from="-201231594#8" to="38448527#9"/>
    <trip id="veh8" type="veh_passenger" depart="41.55" departLane="best" departSpeed="max" from="840848456#0" to="1201246962#2"/>
    <trip id="veh9" type="veh_passenger" depart="46.74" departLane="best" departSpeed="max" from="840848456#0" to="684542202#0"/>
    <trip id="veh10" type="veh_passenger" depart="51.94" departLane="best" departSpeed="max" from="38448527#0" to="-684542201#1"/>
    <trip id="veh11" type="veh_passenger" depart="57.13" departLane="best" departSpeed="max" from="840848456#0" to="38448527#9"/>
    <trip id="veh12" type="veh_passenger" depart="62.32" departLane="best" departSpeed="max" from="840848456#0" to="840829966#1"/>
    <trip id="veh13" type="veh_passenger" depart="67.52" departLane="best" departSpeed="max" from="840848451#0" to="840853045#2"/>
    <trip id="veh14" type="veh_passenger" depart="72.71" departLane="best" departSpeed="max" from="38448527#0" to="38448527#9"/>
    <trip id="veh15" type="veh_passenger" depart="77.91" departLane="best" departSpeed="max" from="840848456#0" to="38448527#9"/>
    <trip id="veh16" type="veh_passenger" depart="83.10" departLane="best" departSpeed="max" from="840848456#0" to="38448527#9"/>
    <trip id="veh17" type="veh_passenger" depart="88.29" departLane="best" departSpeed="max" from="840848456#0" to="-1201246973#1"/>
    <trip id="veh18" type="veh_passenger" depart="93.49" departLane="best" from="-201231602#16" to="1222277984#2"/>
    <trip id="veh19" type="veh_passenger" depart="98.68" departLane="best" from="201235412#0" to="1201246962#3"/>
    <trip id="veh20" type="veh_passenger" depart="103.87" departLane="best" from="201874295#6" to="1222277984#2"/>
    <trip id="veh21" type="veh_passenger" depart="109.07" departLane="best" departSpeed="max" from="840848451#0" to="1222277984#2"/>
    <trip id="veh22" type="veh_passenger" depart="114.26" departLane="best" departSpeed="max" from="38448527#0" to="-840884157#6"/>
    <trip id="veh23" type="veh_passenger" depart="119.45" departLane="best" from="201768883#3" to="840848451#9"/>
    <trip id="veh24" type="veh_passenger" depart="124.65" departLane="best" from="38448527#7" to="38448527#9"/>
    <trip id="veh25" type="veh_passenger" depart="129.84" departLane="best" from="-840887391" to="840829966#1"/>
    <trip id="veh26" type="veh_passenger" depart="135.04" departLane="best" from="840884157#9" to="-201231594#1"/>
    <trip id="veh27" type="veh_passenger" depart="140.23" departLane="best" from="840884157#7" to="38448527#9"/>
    <trip id="veh28" type="veh_passenger" depart="145.42" departLane="best" departSpeed="max" from="840848456#0" to="840848451#9"/>
    <trip id="veh29" type="veh_passenger" depart="150.62" departLane="best" from="201231602#17" to="-1201246968#3"/>
    <trip id="veh30" type="veh_passenger" depart="155.81" departLane="best" departSpeed="max" from="38448527#0" to="-1201246973#1"/>
    <trip id="veh31" type="veh_passenger" depart="161.00" departLane="best" from="1222277989#1" to="840848451#9"/>
    <trip id="veh32" type="veh_passenger" depart="166.20" departLane="best" departSpeed="max" from="840848456#0" to="201231602#15"/>
    <trip id="veh33" type="veh_passenger" depart="171.39" departLane="best" departSpeed="max" from="840848456#0" to="-201874295#5"/>
    <trip id="veh34" type="veh_passenger" depart="176.59" departLane="best" departSpeed="max" from="840848451#0" to="1201246972#2"/>
    <trip id="veh35" type="veh_passenger" depart="181.78" departLane="best" departSpeed="max" from="840848451#0" to="840848451#9"/>
    <trip id="veh36" type="veh_passenger" depart="186.97" departLane="best" departSpeed="max" from="38448527#0" to="840884178"/>
    <trip id="veh37" type="veh_passenger" depart="192.17" departLane="best" from="-840884187" to="38448527#9"/>
    <trip id="veh39" type="veh_passenger" depart="202.55" departLane="best" from="-201874357#1" to="38448527#9"/>
    <trip id="veh40" type="veh_passenger" depart="207.75" departLane="best" departSpeed="max" from="840848456#0" to="-201235404#4"/>
    <trip id="veh41" type="veh_passenger" depart="212.94" departLane="best" from="-201231602#9" to="-201231594#3"/>
    <trip id="veh42" type="veh_passenger" depart="218.14" departLane="best" from="840884177" to="38448527#9"/>
    <trip id="veh43" type="veh_passenger" depart="223.33" departLane="best" from="840848456#3" to="840848451#9"/>
    <trip id="veh44" type="veh_passenger" depart="228.52" departLane="best" from="-1201246963#5" to="840811835#1"/>
    <trip id="veh45" type="veh_passenger" depart="233.72" departLane="best" departSpeed="max" from="840848456#0" to="38448527#9"/>
    <trip id="veh46" type="veh_passenger" depart="238.91" departLane="best" from="201768883#2" to="38448527#9"/>
    <trip id="veh47" type="veh_passenger" depart="244.10" departLane="best" from="-201874384" to="201235430#0"/>
    <trip id="veh48" type="veh_passenger" depart="249.30" departLane="best" from="38448527#7" to="840853045#0"/>
    <trip id="veh49" type="veh_passenger" depart="254.49" departLane="best" departSpeed="max" from="840848456#0" to="1201246972#3"/>
    <trip id="veh50" type="veh_passenger" depart="259.68" departLane="best" departSpeed="max" from="840848451#0" to="840811835#1"/>
    <trip id="veh51" type="veh_passenger" depart="264.88" departLane="best" departSpeed="max" from="840848456#0" to="840848451#9"/>
    <trip id="veh52" type="veh_passenger" depart="270.07" departLane="best" departSpeed="max" from="38448527#0" to="38448527#9"/>
    <trip id="veh53" type="veh_passenger" depart="275.27" departLane="best" departSpeed="max" from="840848456#0" to="38448527#9"/>
    <trip id="veh54" type="veh_passenger" depart="280.46" departLane="best" departSpeed="max" from="840848456#0" to="38448527#9"/>
    <trip id="veh55" type="veh_passenger" depart="285.65" departLane="best" from="1078204934" to="1222277984#2"/>
    <trip id="veh56" type="veh_passenger" depart="290.85" departLane="best" departSpeed="max" from="840848456#0" to="840848451#9"/>
    <trip id="veh57" type="veh_passenger" depart="296.04" departLane="best" departSpeed="max" from="38448527#0" to="201231594#7"/>
    <trip id="veh58" type="veh_passenger" depart="301.23" departLane="best" departSpeed="max" from="840848456#0" to="840848451#9"/>
    <trip id="veh59" type="veh_passenger" depart="306.43" departLane="best" from="-201235431" to="38448527#4"/>
    <trip id="veh60" type="veh_passenger" depart="311.62" departLane="best" from="-201235403#4" to="840848451#9"/>
    <trip id="veh61" type="veh_passenger" depart="316.82" departLane="best" departSpeed="max" from="840848456#0" to="-201874295#3"/>
    <trip id="veh62" type="veh_passenger" depart="322.01" departLane="best" from="840811830#5" to="38448527#9"/>
    <trip id="veh63" type="veh_passenger" depart="327.20" departLane="best" from="201768883#0" to="840848451#9"/>
    <trip id="veh64" type="veh_passenger" depart="332.40" departLane="best" departSpeed="max" from="38448527#0" to="-840884157#8"/>
    <trip id="veh65" type="veh_passenger" depart="337.59" departLane="best" departSpeed="max" from="840848451#0" to="840829966#1"/>
    <trip id="veh66" type="veh_passenger" depart="342.78" departLane="best" from="1201246972#1" to="1222277984#2"/>
    <trip id="veh67" type="veh_passenger" depart="347.98" departLane="best" from="-840884176" to="38448527#9"/>
    <trip id="veh68" type="veh_passenger" depart="353.17" departLane="best" departSpeed="max" from="38448527#0" to="38448527#9"/>
    <trip id="veh69" type="veh_passenger" depart="358.36" departLane="best" departSpeed="max" from="38448527#0" to="38448527#9"/>
    <trip id="veh70" type="veh_passenger" depart="363.56" departLane="best" from="201231602#19" to="840884187"/>
    <trip id="veh71" type="veh_passenger" depart="368.75" departLane="best" from="-201235404#2" to="38448527#9"/>
    <trip id="veh72" type="veh_passenger" depart="373.95" departLane="best" from="201231602#17" to="840848451#9"/>
    <trip id="veh73" type="veh_passenger" depart="379.14" departLane="best" departSpeed="max" from="840848456#0" to="201231602#18"/>
    <trip id="veh74" type="veh_passenger" depart="384.33" departLane="best" from="201231602#8" to="38448527#9"/>
    <trip id="veh75" type="veh_passenger" depart="389.53" departLane="best" from="201231594#0" to="201874295#7"/>
    <trip id="veh76" type="veh_passenger" depart="394.72" departLane="best" departSpeed="max" from="840848456#0" to="38448527#9"/>
    <trip id="veh77" type="veh_passenger" depart="399.91" departLane="best" from="840811830#2" to="840848451#9"/>
    <trip id="veh78" type="veh_passenger" depart="405.11" departLane="best" departSpeed="max" from="840848456#0" to="-840829966#4"/>
    <trip id="veh79" type="veh_passenger" depart="410.30" departLane="best" from="201874295#1" to="-201235412#0"/>
    <trip id="veh80" type="veh_passenger" depart="415.50" departLane="best" departSpeed="max" from="38448527#0" to="201874348"/>
    <trip id="veh81" type="veh_passenger" depart="420.69" departLane="best" departSpeed="max" from="840848456#0" to="38448527#9"/>
    <trip id="veh82" type="veh_passenger" depart="425.88" departLane="best" from="840884157#0" to="201235407#1"/>
    <trip id="veh83" type="veh_passenger" depart="431.08" departLane="best" departSpeed="max" from="38448527#0" to="1222277984#2"/>
    <trip id="veh84" type="veh_passenger" depart="436.27" departLane="best" departSpeed="max" from="840848456#0" to="-1201246966#7"/>
    <trip id="veh85" type="veh_passenger" depart="441.46" departLane="best" from="-1201246966#6" to="201768897#0"/>
    <trip id="veh86" type="veh_passenger" depart="446.66" departLane="best" departSpeed="max" from="38448527#0" to="1222277984#2"/>
    <trip id="veh87" type="veh_passenger" depart="451.85" departLane="best" from="-201235406#1" to="840848451#9"/>
    <trip id="veh88" type="veh_passenger" depart="457.04" departLane="best" departSpeed="max" from="840848451#0" to="-201231594#0"/>
    <trip id="veh89" type="veh_passenger" depart="462.24" departLane="best" from="-840895221" to="840848451#9"/>
    <trip id="veh90" type="veh_passenger" depart="467.43" departLane="best" from="840848456#3" to="840848451#9"/>
    <trip id="veh91" type="veh_passenger" depart="472.63" departLane="best" departSpeed="max" from="840848456#0" to="-840793115#0"/>
    <trip id="veh92" type="veh_passenger" depart="477.82" departLane="best" from="840829966#3" to="-840884172#1"/>
    <trip id="veh93" type="veh_passenger" depart="483.01" departLane="best" departSpeed="max" from="38448527#0" to="-201231594#8"/>
    <trip id="veh94" type="veh_passenger" depart="488.21" departLane="best" departSpeed="max" from="38448527#0" to="840884157#6"/>
    <trip id="veh95" type="veh_passenger" depart="493.40" departLane="best" from="201768883#0" to="840848451#9"/>
    <trip id="veh96" type="veh_passenger" depart="498.59" departLane="best" from="840848451#2" to="201235406#0"/>
    <trip id="veh97" type="veh_passenger" depart="503.79" departLane="best" departSpeed="max" from="840848456#0" to="840884178"/>
    <trip id="veh98" type="veh_passenger" depart="508.98" departLane="best" departSpeed="max" from="840848451#0" to="840811833"/>
    <trip id="veh99" type="veh_passenger" depart="514.18" departLane="best" from="840859789#2" to="1222277984#2"/>
    <trip id="veh100" type="veh_passenger" depart="519.37" departLane="best" from="840848456#3" to="38448527#9"/>
    <trip id="veh101" type="veh_passenger" depart="524.56" departLane="best" departSpeed="max" from="840848451#0" to="840848451#7"/>
    <trip id="veh102" type="veh_passenger" depart="529.76" departLane="best" departSpeed="max" from="840848451#0" to="840848451#9"/>
    <trip id="veh103" type="veh_passenger" depart="534.95" departLane="best" from="840884157#1" to="840848456#3"/>
    <trip id="veh104" type="veh_passenger" depart="540.14" departLane="best" from="201235412#1" to="-840829965#1"/>
    <trip id="veh105" type="veh_passenger" depart="545.34" departLane="best" from="201231602#4" to="201768883#3"/>
    <trip id="veh106" type="veh_passenger" depart="550.53" departLane="best" departSpeed="max" from="840848456#0" to="-1201246966#5"/>
    <trip id="veh107" type="veh_passenger" depart="555.72" departLane="best" departSpeed="max" from="38448527#0" to="38448527#9"/>
    <trip id="veh108" type="veh_passenger" depart="560.92" departLane="best" departSpeed="max" from="840848451#0" to="840848451#9"/>
    <trip id="veh109" type="veh_passenger" depart="566.11" departLane="best" from="1201246972#5" to="-840811830#4"/>
    <trip id="veh110" type="veh_passenger" depart="571.31" departLane="best" from="201231602#9" to="201231602#15"/>
    <trip id="veh111" type="veh_passenger" depart="576.50" departLane="best" from="-201235404#4" to="201874295#5"/>
    <trip id="veh112" type="veh_passenger" depart="581.69" departLane="best" from="201768883#0" to="840848451#9"/>
    <trip id="veh113" type="veh_passenger" depart="586.89" departLane="best" departSpeed="max" from="840848456#0" to="840848451#9"/>
    <trip id="veh114" type="veh_passenger" depart="592.08" departLane="best" departSpeed="max" from="38448527#0" to="684542202#1"/>
    <trip id="veh115" type="veh_passenger" depart="597.27" departLane="best" departSpeed="max" from="840848456#0" to="840793092#2"/>
    <trip id="veh116" type="veh_passenger" depart="602.47" departLane="best" from="840848451#8" to="-1201246962#3"/>
    <trip id="veh117" type="veh_passenger" depart="607.66" departLane="best" departSpeed="max" from="840848456#0" to="840848451#9"/>
    <trip id="veh118" type="veh_passenger" depart="612.86" departLane="best" from="840811830#4" to="201768854"/>
    <trip id="veh119" type="veh_passenger" depart="618.05" departLane="best" from="-201874348" to="38448527#9"/>
    <trip id="veh120" type="veh_passenger" depart="623.24" departLane="best" from="-201874295#1" to="38448527#9"/>
    <trip id="veh121" type="veh_passenger" depart="628.44" departLane="best" departSpeed="max" from="840848456#0" to="-840884157#0"/>
    <trip id="veh122" type="veh_passenger" depart="633.63" departLane="best" departSpeed="max" from="840848451#0" to="1201246972#3"/>
    <trip id="veh123" type="veh_passenger" depart="638.82" departLane="best" from="840829966#7" to="840848451#9"/>
    <trip id="veh124" type="veh_passenger" depart="644.02" departLane="best" departSpeed="max" from="840848456#0" to="-201235404#2"/>
    <trip id="veh125" type="veh_passenger" depart="649.21" departLane="best" departSpeed="max" from="38448527#0" to="1222277984#2"/>
    <trip id="veh126" type="veh_passenger" depart="654.41" departLane="best" from="-1201246962#0" to="840848451#9"/>
    <trip id="veh127" type="veh_passenger" depart="659.60" departLane="best" departSpeed="max" from="840848451#0" to="1201246972#1"/>
    <trip id="veh128" type="veh_passenger" depart="664.79" departLane="best" departSpeed="max" from="840848456#0" to="38448527#9"/>
    <trip id="veh129" type="veh_passenger" depart="669.99" departLane="best" departSpeed="max" from="38448527#0" to="-1201246963#0"/>
    <trip id="veh130" type="veh_passenger" depart="675.18" departLane="best" from="-201235407#0" to="840848451#9"/>
    <trip id="veh131" type="veh_passenger" depart="680.37" departLane="best" departSpeed="max" from="840848456#0" to="38448527#9"/>
    <trip id="veh132" type="veh_passenger" depart="685.57" departLane="best" departSpeed="max" from="840848456#0" to="38448527#9"/>
    <trip id="veh133" type="veh_passenger" depart="690.76" departLane="best" from="-840829966#6" to="201874295#2"/>
    <trip id="veh134" type="veh_passenger" depart="695.95" departLane="best" departSpeed="max" from="840848456#0" to="840848451#9"/>
    <trip id="veh135" type="veh_passenger" depart="701.15" departLane="best" departSpeed="max" from="840848456#0" to="-840884157#7"/>
    <trip id="veh136" type="veh_passenger" depart="706.34" departLane="best" departSpeed="max" from="840848456#0" to="840848451#9"/>
    <trip id="veh137" type="veh_passenger" depart="711.54" departLane="best" departSpeed="max" from="38448527#0" to="38448527#9"/>
    <trip id="veh138" type="veh_passenger" depart="716.73" departLane="best" from="840859789#1" to="840848451#9"/>
    <trip id="veh139" type="veh_passenger" depart="721.92" departLane="best" departSpeed="max" from="840848456#0" to="-840859789#1"/>
    <trip id="veh140" type="veh_passenger" depart="727.12" departLane="best" departSpeed="max" from="840848456#0" to="840848451#9"/>
    <trip id="veh142" type="veh_passenger" depart="737.50" departLane="best" departSpeed="max" from="840848456#0" to="840848451#9"/>
    <trip id="veh143" type="veh_passenger" depart="742.70" departLane="best" departSpeed="max" from="840848456#0" to="1201246973#0"/>
    <trip id="veh144" type="veh_passenger" depart="747.89" departLane="best" departSpeed="max" from="840848456#0" to="-201235430#3"/>
    <trip id="veh145" type="veh_passenger" depart="753.09" departLane="best" departSpeed="max" from="840848456#0" to="840848451#9"/>
    <trip id="veh146" type="veh_passenger" depart="758.28" departLane="best" from="201231602#1" to="840848451#9"/>
    <trip id="veh147" type="veh_passenger" depart="763.47" departLane="best" from="-684542202#0" to="1222277984#2"/>
    <trip id="veh148" type="veh_passenger" depart="768.67" departLane="best" departSpeed="max" from="840848456#0" to="1201246961#2"/>
    <trip id="veh149" type="veh_passenger" depart="773.86" departLane="best" from="-1201246968#1" to="-840829966#7"/>
    <trip id="veh150" type="veh_passenger" depart="779.05" departLane="best" from="1222277984#1" to="1222277984#2"/>
    <trip id="veh151" type="veh_passenger" depart="784.25" departLane="best" departSpeed="max" from="840848451#0" to="-201231602#19"/>
    <trip id="veh152" type="veh_passenger" depart="789.44" departLane="best" departSpeed="max" from="840848456#0" to="201768854"/>
    <trip id="veh153" type="veh_passenger" depart="794.63" departLane="best" from="840848456#1" to="1201246972#5"/>
    <trip id="veh154" type="veh_passenger" depart="799.83" departLane="best" from="201874355" to="201235430#0"/>
    <trip id="veh155" type="veh_passenger" depart="805.02" departLane="best" departSpeed="max" from="38448527#0" to="38448527#9"/>
    <trip id="veh156" type="veh_passenger" depart="810.22" departLane="best" from="201235412#0" to="840793115#0"/>
    <trip id="veh157" type="veh_passenger" depart="815.41" departLane="best" from="-1201246961#1" to="840848451#9"/>
    <trip id="veh158" type="veh_passenger" depart="820.60" departLane="best" departSpeed="max" from="840848451#0" to="840811835#0"/>
    <trip id="veh159" type="veh_passenger" depart="825.80" departLane="best" departSpeed="max" from="840848456#0" to="38448527#9"/>
    <trip id="veh160" type="veh_passenger" depart="830.99" departLane="best" departSpeed="max" from="38448527#0" to="-201231602#17"/>
    <trip id="veh161" type="veh_passenger" depart="836.18" departLane="best" departSpeed="max" from="38448527#0" to="201231602#7"/>
    <trip id="veh162" type="veh_passenger" depart="841.38" departLane="best" departSpeed="max" from="38448527#0" to="1222277984#2"/>
    <trip id="veh163" type="veh_passenger" depart="846.57" departLane="best" from="-840793114#1" to="201235404#2"/>
    <trip id="veh164" type="veh_passenger" depart="851.77" departLane="best" departSpeed="max" from="840848456#0" to="38448527#9"/>
    <trip id="veh165" type="veh_passenger" depart="856.96" departLane="best" departSpeed="max" from="840848456#0" to="38448527#9"/>
    <trip id="veh166" type="veh_passenger" depart="862.15" departLane="best" departSpeed="max" from="38448527#0" to="38448527#9"/>
    <trip id="veh167" type="veh_passenger" depart="867.35" departLane="best" from="1078204934" to="1222277984#2"/>
    <trip id="veh168" type="veh_passenger" depart="872.54" departLane="best" departSpeed="max" from="38448527#0" to="38448527#9"/>
    <trip id="veh169" type="veh_passenger" depart="877.73" departLane="best" departSpeed="max" from="840848456#0" to="201874335#1"/>
    <trip id="veh170" type="veh_passenger" depart="882.93" departLane="best" departSpeed="max" from="38448527#0" to="-840884172#1"/>
    <trip id="veh171" type="veh_passenger" depart="888.12" departLane="best" from="840811830#3" to="840848451#9"/>
    <trip id="veh172" type="veh_passenger" depart="893.31" departLane="best" departSpeed="max" from="840848456#0" to="-840811827#1"/>
    <trip id="veh173" type="veh_passenger" depart="898.51" departLane="best" from="-201235430#5" to="38448527#9"/>
    <trip id="veh174" type="veh_passenger" depart="903.70" departLane="best" departSpeed="max" from="840848451#0" to="1222277984#2"/>
    <trip id="veh175" type="veh_passenger" depart="908.90" departLane="best" departSpeed="max" from="840848456#0" to="840848451#9"/>
    <trip id="veh176" type="veh_passenger" depart="914.09" departLane="best" departSpeed="max" from="840848456#0" to="-1078204934"/>
    <trip id="veh177" type="veh_passenger" depart="919.28" departLane="best" from="1201246969#3" to="1201246966#6"/>
    <trip id="veh178" type="veh_passenger" depart="924.48" departLane="best" from="201235403#5" to="201879928"/>
    <trip id="veh179" type="veh_passenger" depart="929.67" departLane="best" departSpeed="max" from="840848456#0" to="201231602#2"/>
    <trip id="veh180" type="veh_passenger" depart="934.86" departLane="best" departSpeed="max" from="38448527#0" to="38448527#9"/>
    <trip id="veh181" type="veh_passenger" depart="940.06" departLane="best" from="1201246968#1" to="-684542201#0"/>
    <trip id="veh182" type="veh_passenger" depart="945.25" departLane="best" departSpeed="max" from="840848451#0" to="1201246966#2"/>
    <trip id="veh183" type="veh_passenger" depart="950.45" departLane="best" departSpeed="max" from="840848456#0" to="1201246962#1"/>
    <trip id="veh184" type="veh_passenger" depart="955.64" departLane="best" departSpeed="max" from="840848456#0" to="840848451#9"/>
    <trip id="veh185" type="veh_passenger" depart="960.83" departLane="best" from="-201874335#3" to="-201235407#0"/>
    <trip id="veh186" type="veh_passenger" depart="966.03" departLane="best" from="1201246961#3" to="1222277984#1"/>
    <trip id="veh187" type="veh_passenger" depart="971.22" departLane="best" departSpeed="max" from="840848451#0" to="-201231594#0"/>
    <trip id="veh188" type="veh_passenger" depart="976.41" departLane="best" from="-201235406#0" to="840848451#9"/>
    <trip id="veh189" type="veh_passenger" depart="981.61" departLane="best" from="404099528#1" to="840848451#9"/>
    <trip id="veh190" type="veh_passenger" depart="986.80" departLane="best" departSpeed="max" from="840848456#0" to="840884157#8"/>
    <trip id="veh191" type="veh_passenger" depart="991.99" departLane="best" departSpeed="max" from="840848451#0" to="840848451#9"/>
    <trip id="veh192" type="veh_passenger" depart="997.19" departLane="best" departSpeed="max" from="840848456#0" to="38448527#9"/>
    <trip id="veh193" type="veh_passenger" depart="1002.38" departLane="best" departSpeed="max" from="840848456#0" to="38448527#9"/>
    <trip id="veh194" type="veh_passenger" depart="1007.58" departLane="best" departSpeed="max" from="840848456#0" to="38448527#9"/>
    <trip id="veh195" type="veh_passenger" depart="1012.77" departLane="best" departSpeed="max" from="840848456#0" to="38448527#6"/>
    <trip id="veh196" type="veh_passenger" depart="1017.96" departLane="best" from="840811830#5" to="1201246969#4"/>
    <trip id="veh197" type="veh_passenger" depart="1023.16" departLane="best" from="201235404#3" to="38448527#9"/>
    <trip id="veh198" type="veh_passenger" depart="1028.35" departLane="best" departSpeed="max" from="840848456#0" to="38448527#9"/>
    <trip id="veh199" type="veh_passenger" depart="1033.54" departLane="best" departSpeed="max" from="840848451#0" to="1222277984#2"/>
    <trip id="veh200" type="veh_passenger" depart="1038.74" departLane="best" from="201235407#3" to="1222277984#2"/>
    <trip id="veh201" type="veh_passenger" depart="1043.93" departLane="best" from="201874295#0" to="1222277984#2"/>
    <trip id="veh202" type="veh_passenger" depart="1049.13" departLane="best" departSpeed="max" from="840848451#0" to="201874335#3"/>
    <trip id="veh203" type="veh_passenger" depart="1054.32" departLane="best" from="201231602#2" to="404099528#1"/>
    <trip id="veh204" type="veh_passenger" depart="1059.51" departLane="best" departSpeed="max" from="840848456#0" to="201231602#12"/>
    <trip id="veh205" type="veh_passenger" depart="1064.71" departLane="best" departSpeed="max" from="38448527#0" to="38448527#9"/>
    <trip id="veh206" type="veh_passenger" depart="1069.90" departLane="best" departSpeed="max" from="38448527#0" to="-840884157#3"/>
    <trip id="veh207" type="veh_passenger" depart="1075.09" departLane="best" departSpeed="max" from="840848456#0" to="840848451#9"/>
    <trip id="veh208" type="veh_passenger" depart="1080.29" departLane="best" departSpeed="max" from="38448527#0" to="1201246962#1"/>
    <trip id="veh209" type="veh_passenger" depart="1085.48" departLane="best" departSpeed="max" from="840848456#0" to="840848456#1"/>
    <trip id="veh210" type="veh_passenger" depart="1090.68" departLane="best" departSpeed="max" from="38448527#0" to="840848451#7"/>
    <trip id="veh211" type="veh_passenger" depart="1095.87" departLane="best" from="201231594#8" to="840884178"/>
    <trip id="veh212" type="veh_passenger" depart="1101.06" departLane="best" departSpeed="max" from="38448527#0" to="-1201246968#0"/>
    <trip id="veh213" type="veh_passenger" depart="1106.26" departLane="best" departSpeed="max" from="38448527#0" to="38448527#9"/>
    <trip id="veh214" type="veh_passenger" depart="1111.45" departLane="best" departSpeed="max" from="38448527#0" to="840793114#1"/>
    <trip id="veh215" type="veh_passenger" depart="1116.64" departLane="best" from="840793114#1" to="-201874295#2"/>
    <trip id="veh216" type="veh_passenger" depart="1121.84" departLane="best" departSpeed="max" from="840848451#0" to="-1201246967#0"/>
    <trip id="veh217" type="veh_passenger" depart="1127.03" departLane="best" departSpeed="max" from="38448527#0" to="38448527#9"/>
    <trip id="veh218" type="veh_passenger" depart="1132.22" departLane="best" from="-1201246969#2" to="38448527#9"/>
    <trip id="veh219" type="veh_passenger" depart="1137.42" departLane="best" from="-201231602#13" to="-201231594#1"/>
    <trip id="veh220" type="veh_passenger" depart="1142.61" departLane="best" from="1222277990" to="1222277984#2"/>