<?xml version="1.0" encoding="UTF-8"?>

<!-- generated on 2025-04-21 20:27:25.031371 by osmWebWizard.py v1_19_0+0000-baa66a0f364
<configuration>
    <net-file value="C:\Users\revat\Sumo\2025-04-21-20-27-16\osm.net.xml.gz"/>
    <output-trip-file value="C:\Users\revat\Sumo\2025-04-21-20-27-16\osm.truck.trips.xml"/>
    <route-file value="C:\Users\revat\Sumo\2025-04-21-20-27-16\osm.truck.rou.xml"/>
    <prefix value="truck"/>
    <trip-attributes value="departLane=&quot;best&quot;"/>
    <fringe-start-attributes value="departSpeed=&quot;max&quot;"/>
    <vehicle-class value="truck"/>
    <fringe-factor value="5"/>
    <vclass value="truck"/>
    <via-edge-types value="highway.motorway,highway.motorway_link,highway.trunk_link,highway.primary_link,highway.secondary_link,highway.tertiary_link"/>
    <min-distance value="600.0"/>
    <min-distance.fringe value="10.0"/>
    <remove-loops value="True"/>
    <validate value="True"/>
    <insertion-density value="8.0"/>
</configuration>
-->

<!-- generated on 2025-04-21 20:27:24 by Eclipse SUMO duarouter Version 1.19.0
<configuration xmlns:xsi="http://www.w3.org/2001/XMLSchema-instance" xsi:noNamespaceSchemaLocation="http://sumo.dlr.de/xsd/duarouterConfiguration.xsd">

    <input>
        <net-file value="C:\Users\revat\Sumo\2025-04-21-20-27-16\osm.net.xml.gz"/>
        <route-files value="C:\Users\revat\Sumo\2025-04-21-20-27-16\osm.truck.trips.xml"/>
    </input>

    <output>
        <output-file value="C:\Users\revat\Sumo\2025-04-21-20-27-16\osm.truck.trips.xml.tmp"/>
        <alternatives-output value="NUL"/>
        <write-trips value="true"/>
    </output>

    <processing>
        <remove-loops value="true"/>
    </processing>

    <time>
        <begin value="0.0"/>
        <end value="3600.0"/>
    </time>

    <report>
        <no-warnings value="true"/>
        <ignore-errors value="true"/>
        <no-step-log value="true"/>
    </report>

</configuration>
-->

<routes xmlns:xsi="http://www.w3.org/2001/XMLSchema-instance" xsi:noNamespaceSchemaLocation="http://sumo.dlr.de/xsd/routes_file.xsd">
    <vType id="truck_truck" vClass="truck"/>
    <trip id="truck0" type="truck_truck" depart="0.00" departLane="best" from="201231602#9" to="-1201246963#3"/>
    <trip id="truck1" type="truck_truck" depart="7.79" departLane="best" from="-201874295#8" to="-201235430#3"/>
    <trip id="truck2" type="truck_truck" depart="15.58" departLane="best" from="840884157#2" to="-1201246963#5"/>
    <trip id="truck3" type="truck_truck" depart="23.37" departLane="best" from="201235403#2" to="1201246972#4"/>
    <trip id="truck4" type="truck_truck" depart="31.16" departLane="best" from="404099528#1" to="201235430#0"/>
    <trip id="truck5" type="truck_truck" depart="38.95" departLane="best" from="-840793114#1" to="201231602#22"/>
    <trip id="truck6" type="truck_truck" depart="46.74" departLane="best" from="404099528#2" to="201768897#1"/>
    <trip id="truck7" type="truck_truck" depart="54.53" departLane="best" from="1201246972#0" to="840884157#7"/>
    <trip id="truck8" type="truck_truck" depart="62.32" departLane="best" from="840793113" to="201231602#15"/>
    <trip id="truck9" type="truck_truck" depart="70.11" departLane="best" from="-201235430#5" to="-201874355"/>
    <trip id="truck10" type="truck_truck" depart="77.91" departLane="best" from="-201231535" to="-201874335#0"/>
    <trip id="truck11" type="truck_truck" depart="85.70" departLane="best" from="-201235403#1" to="-201231602#11"/>
    <trip id="truck12" type="truck_truck" depart="93.49" departLane="best" from="201231602#6" to="-840829965#0"/>
    <trip id="truck13" type="truck_truck" depart="101.28" departLane="best" from="1219696067" to="-201235407#2"/>
    <trip id="truck14" type="truck_truck" depart="109.07" departLane="best" from="840811827#1" to="-201874367#1"/>
    <trip id="truck15" type="truck_truck" depart="116.86" departLane="best" from="-201235431" to="-1201246963#6"/>
    <trip id="truck16" type="truck_truck" depart="124.65" departLane="best" from="404099528#3" to="-201874295#5"/>
    <trip id="truck17" type="truck_truck" depart="132.44" departLane="best" from="201235403#5" to="-840829966#6"/>
    <trip id="truck18" type="truck_truck" depart="140.23" departLane="best" from="-1201246962#0" to="-840895221"/>
    <trip id="truck19" type="truck_truck" depart="148.02" departLane="best" from="-201231594#6" to="-840829966#5"/>
    <trip id="truck20" type="truck_truck" depart="155.81" departLane="best" from="840834390" to="201235430#0"/>
    <trip id="truck21" type="truck_truck" depart="163.60" departLane="best" from="-840887391" to="-1201246966#6"/>
    <trip id="truck22" type="truck_truck" depart="171.39" departLane="best" from="-201231594#3" to="-201231602#19"/>
    <trip id="truck23" type="truck_truck" depart="179.18" departLane="best" from="38448527#2" to="-840884157#2"/>
    <trip id="truck24" type="truck_truck" depart="186.97" departLane="best" from="-1201246968#1" to="-840829965#1"/>
    <trip id="truck25" type="truck_truck" depart="194.76" departLane="best" from="-840887391" to="1201246969#2"/>
    <trip id="truck26" type="truck_truck" depart="202.55" departLane="best" from="840884157#6" to="840811830#3"/>
    <trip id="truck27" type="truck_truck" depart="210.34" departLane="best" from="-201231594#4" to="-840884157#8"/>
    <trip id="truck28" type="truck_truck" depart="218.14" departLane="best" from="-840884187" to="-840859789#2"/>
    <trip id="truck29" type="truck_truck" depart="225.93" departLane="best" from="-1201246966#2" to="-201235403#1"/>
    <trip id="truck30" type="truck_truck" depart="233.72" departLane="best" from="840848451#4" to="840811835#1"/>
    <trip id="truck31" type="truck_truck" depart="241.51" departLane="best" from="201874357#1" to="1201246972#2"/>
    <trip id="truck32" type="truck_truck" depart="249.30" departLane="best" from="-1201246963#0" to="840848451#9"/>
    <trip id="truck33" type="truck_truck" depart="257.09" departLane="best" from="840829966#1" to="840793092#0"/>
    <trip id="truck34" type="truck_truck" depart="264.88" departLane="best" from="320687931#1" to="-1201246967#2"/>
    <trip id="truck35" type="truck_truck" depart="272.67" departLane="best" from="840829966#0" to="840853045#3"/>
    <trip id="truck36" type="truck_truck" depart="280.46" departLane="best" from="-1201246969#0" to="201874335#1"/>
    <trip id="truck37" type="truck_truck" depart="288.25" departLane="best" from="201874367#1" to="-201231602#10"/>
    <trip id="truck38" type="truck_truck" depart="296.04" departLane="best" from="201874295#3" to="840811836"/>
    <trip id="truck39" type="truck_truck" depart="303.83" departLane="best" from="-840884157#2" to="-201235409"/>
    <trip id="truck40" type="truck_truck" depart="311.62" departLane="best" from="-201235407#0" to="-404099528#1"/>
    <trip id="truck41" type="truck_truck" depart="319.41" departLane="best" from="840887388" to="201231602#9"/>
    <trip id="truck42" type="truck_truck" depart="327.20" departLane="best" from="840884157#9" to="1201246968#0"/>
    <trip id="truck43" type="truck_truck" depart="334.99" departLane="best" from="-1201246969#1" to="-201231602#20"/>
    <trip id="truck45" type="truck_truck" depart="350.57" departLane="best" from="840811835#0" to="-1201246969#1"/>
    <trip id="truck46" type="truck_truck" depart="358.36" departLane="best" from="1222277984#0" to="1222277984#2"/>
    <trip id="truck47" type="truck_truck" depart="366.16" departLane="best" from="-1201246962#0" to="-320687931#0"/>
    <trip id="truck48" type="truck_truck" depart="373.95" departLane="best" from="404099528#2" to="-201235404#2"/>
    <trip id="truck49" type="truck_truck" depart="381.74" departLane="best" from="840884174" to="-840811830#3"/>
    <trip id="truck50" type="truck_truck" depart="389.53" departLane="best" from="840895221" to="840793092#2"/>
    <trip id="truck51" type="truck_truck" depart="397.32" departLane="best" from="840884157#5" to="840848451#9"/>
    <trip id="truck52" type="truck_truck" depart="405.11" departLane="best" from="840834390" to="-1201246967#2"/>
    <trip id="truck53" type="truck_truck" depart="412.90" departLane="best" from="-840887388" to="-840884157#2"/>
    <trip id="truck54" type="truck_truck" depart="420.69" departLane="best" from="840884157#0" to="-840887388"/>
    <trip id="truck55" type="truck_truck" depart="428.48" departLane="best" from="1219696067" to="201768883#0"/>
    <trip id="truck56" type="truck_truck" depart="436.27" departLane="best" from="1201246972#3" to="201874295#5"/>
    <trip id="truck57" type="truck_truck" depart="444.06" departLane="best" from="-1201246967#1" to="-201231594#0"/>
    <trip id="truck58" type="truck_truck" depart="451.85" departLane="best" from="-1201246966#3" to="-840811827#1"/>
    <trip id="truck59" type="truck_truck" depart="459.64" departLane="best" from="201231602#1" to="-201235406#0"/>
    <trip id="truck60" type="truck_truck" depart="467.43" departLane="best" from="201231602#0" to="201231602#16"/>
    <trip id="truck61" type="truck_truck" depart="475.22" departLane="best" from="840884157#0" to="-201231594#0"/>
    <trip id="truck62" type="truck_truck" depart="483.01" departLane="best" from="-201235407#1" to="201874384"/>
    <trip id="truck63" type="truck_truck" depart="490.80" departLane="best" from="404099528#3" to="201874295#7"/>
    <trip id="truck64" type="truck_truck" depart="498.59" departLane="best" from="-1201246969#2" to="840887391"/>
    <trip id="truck65" type="truck_truck" depart="506.38" departLane="best" from="840829966#2" to="840811841#3"/>
    <trip id="truck66" type="truck_truck" depart="514.18" departLane="best" from="-840811836" to="-201231602#3"/>
    <trip id="truck67" type="truck_truck" depart="521.97" departLane="best" from="-201235403#4" to="-1201246961#2"/>
    <trip id="truck68" type="truck_truck" depart="529.76" departLane="best" from="-684542202#1" to="201874384"/>
    <trip id="truck69" type="truck_truck" depart="537.55" departLane="best" from="-201231602#13" to="-201231594#6"/>
    <trip id="truck70" type="truck_truck" depart="545.34" departLane="best" from="840811830#1" to="-1201246973#0"/>
    <trip id="truck71" type="truck_truck" depart="553.13" departLane="best" from="-840884157#2" to="-201874295#9"/>
    <trip id="truck72" type="truck_truck" depart="560.92" departLane="best" from="-1201246961#0" to="-201874357#0"/>
    <trip id="truck73" type="truck_truck" depart="568.71" departLane="best" from="-201874295#7" to="-1201246973#2"/>
    <trip id="truck74" type="truck_truck" depart="576.50" departLane="best" from="-1201246969#3" to="-840829965#0"/>
    <trip id="truck75" type="truck_truck" depart="584.29" departLane="best" from="-840793114#1" to="-201231594#0"/>
    <trip id="truck76" type="truck_truck" depart="592.08" departLane="best" from="-201231602#19" to="-201231602#1"/>
    <trip id="truck77" type="truck_truck" depart="599.87" departLane="best" from="38448527#4" to="-840811830#3"/>
    <trip id="truck78" type="truck_truck" depart="607.66" departLane="best" departSpeed="max" from="840848451#0" to="-201235409"/>
    <trip id="truck79" type="truck_truck" depart="615.45" departLane="best" departSpeed="max" from="38448527#0" to="-840829965#0"/>
    <trip id="truck80" type="truck_truck" depart="623.24" departLane="best" from="840853045#2" to="201231602#16"/>
    <trip id="truck81" type="truck_truck" depart="631.03" departLane="best" from="201231602#22" to="840848451#9"/>
    <trip id="truck82" type="truck_truck" depart="638.82" departLane="best" from="-840811841#0" to="-840884157#9"/>
    <trip id="truck83" type="truck_truck" depart="646.61" departLane="best" from="1201246963#3" to="-201874273"/>
    <trip id="truck84" type="truck_truck" depart="654.41" departLane="best" from="-840793092#2" to="840853045#0"/>
    <trip id="truck85" type="truck_truck" depart="662.20" departLane="best" from="840848451#2" to="-840811830#4"/>
    <trip id="truck86" type="truck_truck" depart="669.99" departLane="best" from="684542201#0" to="-201874295#4"/>
    <trip id="truck87" type="truck_truck" depart="677.78" departLane="best" from="840811842" to="840811830#2"/>
    <trip id="truck88" type="truck_truck" depart="685.57" departLane="best" from="-201235430#3" to="-404099528#1"/>
    <trip id="truck89" type="truck_truck" depart="693.36" departLane="best" from="1201246963#2" to="201235404#3"/>
    <trip id="truck91" type="truck_truck" depart="708.94" departLane="best" from="840884157#6" to="-201235403#1"/>
    <trip id="truck92" type="truck_truck" depart="716.73" departLane="best" from="-201231594#2" to="-840884157#8"/>
    <trip id="truck93" type="truck_truck" depart="724.52" departLane="best" from="201231602#14" to="-1201246966#7"/>
    <trip id="truck94" type="truck_truck" depart="732.31" departLane="best" from="-201874266#1" to="201235431"/>
    <trip id="truck95" type="truck_truck" depart="740.10" departLane="best" from="-840811835#0" to="-1201246969#1"/>
    <trip id="truck96" type="truck_truck" depart="747.89" departLane="best" from="404099528#2" to="840793115#1"/>
    <trip id="truck97" type="truck_truck" depart="755.68" departLane="best" from="404099528#0" to="-840853045#3"/>
    <trip id="truck98" type="truck_truck" depart="763.47" departLane="best" from="-840848457" to="-201874367#0"/>
    <trip id="truck99" type="truck_truck" depart="771.26" departLane="best" from="-1078204934" to="-201874348"/>
    <trip id="truck100" type="truck_truck" depart="779.05" departLane="best" from="201235403#5" to="1201246961#0"/>
    <trip id="truck101" type="truck_truck" depart="786.84" departLane="best" from="38448527#4" to="-201231602#9"/>
    <trip id="truck102" type="truck_truck" depart="794.63" departLane="best" from="-201231602#6" to="-840793100"/>
    <trip id="truck103" type="truck_truck" depart="802.43" departLane="best" from="-684542202#1" to="201874295#7"/>
    <trip id="truck104" type="truck_truck" depart="810.22" departLane="best" from="-201235406#1" to="-1201246963#2"/>
    <trip id="truck105" type="truck_truck" depart="818.01" departLane="best" from="840811830#2" to="-1201246969#2"/>
    <trip id="truck106" type="truck_truck" depart="825.80" departLane="best" from="201235403#5" to="-1201246961#1"/>
    <trip id="truck107" type="truck_truck" depart="833.59" departLane="best" from="201231594#1" to="-840884157#3"/>
    <trip id="truck108" type="truck_truck" depart="841.38" departLane="best" from="-201235403#0" to="-840884157#0"/>
    <trip id="truck109" type="truck_truck" depart="849.17" departLane="best" from="-201768897#1" to="840793115#1"/>
    <trip id="truck110" type="truck_truck" depart="856.96" departLane="best" from="-840887388" to="38448527#8"/>
    <trip id="truck111" type="truck_truck" depart="864.75" departLane="best" from="201235406#1" to="840884177"/>
    <trip id="truck112" type="truck_truck" depart="872.54" departLane="best" from="201231602#1" to="-840859789#0"/>
    <trip id="truck113" type="truck_truck" depart="880.33" departLane="best" from="840793113" to="1201246973#0"/>
    <trip id="truck114" type="truck_truck" depart="888.12" departLane="best" departSpeed="max" from="840848451#0" to="-201874295#3"/>
    <trip id="truck115" type="truck_truck" depart="895.91" departLane="best" from="-1201246962#1" to="-201874295#0"/>
    <trip id="truck116" type="truck_truck" depart="903.70" departLane="best" from="-201768897#0" to="201231602#3"/>
    <trip id="truck117" type="truck_truck" depart="911.49" departLane="best" from="201874367#1" to="-1201246968#2"/>
    <trip id="truck118" type="truck_truck" depart="919.28" departLane="best" from="-1201246969#4" to="201874335#3"/>
    <trip id="truck119" type="truck_truck" depart="927.07" departLane="best" from="-201874295#7" to="-684542201#1"/>
    <trip id="truck120" type="truck_truck" depart="934.86" departLane="best" from="1201246972#2" to="-201231602#15"/>
    <trip id="truck121" type="truck_truck" depart="942.65" departLane="best" from="-840853045#3" to="1201246972#3"/>
    <trip id="truck122" type="truck_truck" depart="950.45" departLane="best" from="-840876723" to="-201235407#3"/>
    <trip id="truck123" type="truck_truck" depart="958.24" departLane="best" from="840811830#4" to="-840859789#2"/>
    <trip id="truck124" type="truck_truck" depart="966.03" departLane="best" from="1201246972#5" to="-201231602#0"/>
    <trip id="truck125" type="truck_truck" depart="973.82" departLane="best" from="840884157#8" to="-1201246963#5"/>
    <trip id="truck126" type="truck_truck" depart="981.61" departLane="best" from="1201246961#2" to="-201231602#10"/>
    <trip id="truck127" type="truck_truck" depart="989.40" departLane="best" from="201231602#21" to="-1201246963#4"/>
    <trip id="truck128" type="truck_truck" depart="997.19" departLane="best" from="840829966#5" to="1222277984#2"/>
    <trip id="truck129" type="truck_truck" depart="1004.98" departLane="best" from="-1201246963#4" to="201231602#6"/>
    <trip id="truck130" type="truck_truck" depart="1012.77" departLane="best" from="201231602#13" to="1078204934"/>
    <trip id="truck131" type="truck_truck" depart="1020.56" departLane="best" from="-1201246966#6" to="-840829965#0"/>
    <trip id="truck132" type="truck_truck" depart="1028.35" departLane="best" from="-201235409" to="684560347"/>
    <trip id="truck133" type="truck_truck" depart="1036.14" departLane="best" from="201874357#0" to="-840829965#0"/>
    <trip id="truck134" type="truck_truck" depart="1043.93" departLane="best" from="201874335#2" to="840793092#0"/>
    <trip id="truck135" type="truck_truck" depart="1051.72" departLane="best" from="201874266#0" to="-1201246972#1"/>
    <trip id="truck136" type="truck_truck" depart="1059.51" departLane="best" from="201235403#2" to="-201874397"/>
    <trip id="truck137" type="truck_truck" depart="1067.30" departLane="best" from="201235403#3" to="201874295#8"/>
    <trip id="truck138" type="truck_truck" depart="1075.09" departLane="best" from="840859789#0" to="-201235406#1"/>
    <trip id="truck139" type="truck_truck" depart="1082.88" departLane="best" from="-201231602#1" to="201235404#2"/>
    <trip id="truck140" type="truck_truck" depart="1090.68" departLane="best" from="201231594#7" to="201874348"/>
    <trip id="truck141" type="truck_truck" depart="1098.47" departLane="best" from="-684560347" to="-840884157#3"/>
    <trip id="truck142" type="truck_truck" depart="1106.26" departLane="best" from="-201231594#2" to="-1201246963#3"/>
    <trip id="truck143" type="truck_truck" depart="1114.05" departLane="best" from="404099528#1" to="201235406#1"/>
    <trip id="truck144" type="truck_truck" depart="1121.84" departLane="best" from="-201235430#2" to="-201231602#19"/>
    <trip id="truck145" type="truck_truck" depart="1129.63" departLane="best" from="-201231535" to="201874357#1"/>
    <trip id="truck146" type="truck_truck" depart="1137.42" departLane="best" from="-201231594#8" to="-840884175"/>
    <trip id="truck147" type="truck_truck" depart="1145.21" departLane="best" departSpeed="max" from="38448527#0" to="-840811827#0"/>
    <trip id="truck148" type="truck_truck" depart="1153.00" departLane="best" from="-1201246966#4" to="840793114#1"/>
    <trip id="truck149" type="truck_truck" depart="1160.79" departLane="best" from="840811830#2" to="-684542201#0"/>
    <trip id="truck150" type="truck_truck" depart="1168.58" departLane="best" from="201231594#1" to="-840884157#1"/>
    <trip id="truck151" type="truck_truck" depart="1176.37" departLane="best" from="-201231602#7" to="684542202#1"/>
    <trip id="truck152" type="truck_truck" depart="1184.16" departLane="best" from="-201874295#6" to="38448527#9"/>
    <trip id="truck153" type="truck_truck" depart="1191.95" departLane="best" from="840793113" to="-1201246972#4"/>
    <trip id="truck154" type="truck_truck" depart="1199.74" departLane="best" from="840829965#0" to="-1201246963#4"/>
    <trip id="truck155" type="truck_truck" depart="1207.53" departLane="best" from="840811830#3" to="-201235403#3"/>
    <trip id="truck156" type="truck_truck" depart="1215.32" departLane="best" from="-840793114#1" to="840811841#3"/>
    <trip id="truck157" type="truck_truck" depart="1223.11" departLane="best" from="-201768850#0" to="201874295#9"/>
    <trip id="truck158" type="truck_truck" depart="1230.90" departLane="best" from="-1201246962#0" to="840853045#3"/>
    <trip id="truck159" type="truck_truck" depart="1238.70" departLane="best" from="-1201246963#4" to="-201874335#0"/>
    <trip id="truck160" type="truck_truck" depart="1246.49" departLane="best" from="201235430#2" to="201231602#7"/>
    <trip id="truck161" type="truck_truck" depart="1254.28" departLane="best" from="201235430#3" to="-320687931#0"/>
    <trip id="truck162" type="truck_truck" depart="1262.07" departLane="best" from="201231594#4" to="1201246962#1"/>
    <trip id="truck163" type="truck_truck" depart="1269.86" departLane="best" from="-1201246969#3" to="-840884157#3"/>
    <trip id="truck164" type="truck_truck" depart="1277.65" departLane="best" from="201768850#1" to="-201874295#6"/>
    <trip id="truck165" type="truck_truck" depart="1285.44" departLane="best" from="201874266#0" to="-201231594#8"/>
    <trip id="truck166" type="truck_truck" depart="1293.23" departLane="best" from="1201246972#0" to="201874335#2"/>
    <trip id="truck167" type="truck_truck" depart="1301.02" departLane="best" from="1201246969#4" to="-201874295#8"/>
    <trip id="truck168" type="truck_truck" depart="1308.81" departLane="best" from="840884157#8" to="-1201246973#2"/>
    <trip id="truck169" type="truck_truck" depart="1316.60" departLane="best" from="-201235430#5" to="-201231602#1"/>
    <trip id="truck170" type="truck_truck" depart="1324.39" departLane="best" from="840829965#0" to="1222277989#0"/>
    <trip id="truck171" type="truck_truck" depart="1332.18" departLane="best" from="1201246961#3" to="-840884172#2"/>
    <trip id="truck172" type="truck_truck" depart="1339.97" departLane="best" from="840848457" to="1201246962#3"/>
    <trip id="truck174" type="truck_truck" depart="1355.55" departLane="best" from="-1201246969#3" to="-201231602#2"/>
    <trip id="truck175" type="truck_truck" depart="1363.34" departLane="best" from="-1201246967#0" to="-201231602#2"/>
    <trip id="truck176" type="truck_truck" depart="1371.13" departLane="best" from="201874367#0" to="201231602#1"/>
    <trip id="truck177" type="truck_truck" depart="1378.92" departLane="best" from="1201246968#2" to="-840884177"/>
    <trip id="truck178" type="truck_truck" depart="1386.72" departLane="best" from="840884174" to="-840811830#3"/>
    <trip id="truck179" type="truck_truck" depart="1394.51" departLane="best" from="201235404#2" to="-201231602#3"/>
    <trip id="truck180" type="truck_truck" depart="1402.30" departLane="best" from="201231610#1" to="-1201246969#3"/>
    <trip id="truck181" type="truck_truck" depart="1410.09" departLane="best" from="-1201246961#0" to="-840884177"/>
    <trip id="truck182" type="truck_truck" depart="1417.88" departLane="best" from="201231602#0" to="-201874357#0"/>
    <trip id="truck183" type="truck_truck" depart="1425.67" departLane="best" departSpeed="max" from="38448527#0" to="-201231602#18"/>
    <trip id="truck184" type="truck_truck" depart="1433.46" departLane="best" from="-201235403#1" to="38448527#8"/>
    <trip id="truck185" type="truck_truck" depart="1441.25" departLane="best" from="-840793092#2" to="-1201246969#1"/>
    <trip id="truck186" type="truck_truck" depart="1449.04" departLane="best" from="201874335#0" to="1222277984#2"/>
    <trip id="truck187" type="truck_truck" depart="1456.83" departLane="best" from="-840853045#0" to="1201246966#2"/>
    <trip id="truck188" type="truck_truck" depart="1464.62" departLane="best" from="1201246966#0" to="-840884157#6"/>
    <trip id="truck189" type="truck_truck" depart="1472.41" departLane="best" from="-1201246973#0" to="-840884157#2"/>
    <trip id="truck190" type="truck_truck" depart="1480.20" departLane="best" from="840859789#1" to="840895221"/>
    <trip id="truck191" type="truck_truck" depart="1487.99" departLane="best" from="201235407#1" to="-201874295#5"/>
    <trip id="truck192" type="truck_truck" depart="1495.78" departLane="best" from="1201246966#0" to="201874295#9"/>
    <trip id="truck193" type="truck_truck" depart="1503.57" departLane="best" from="1201246961#3" to="201231610#0"/>
    <trip id="truck194" type="truck_truck" depart="1511.36" departLane="best" from="-201231594#6" to="-201231602#22"/>
    <trip id="truck195" type="truck_truck" depart="1519.15" departLane="best" from="840811827#1" to="840793092#2"/>
    <trip id="truck196" type="truck_truck" depart="1526.95" departLane="best" from="201235407#0" to="-840811830#1"/>
    <trip id="truck197" type="truck_truck" depart="1534.74" departLane="best" from="-840887388" to="-404099528#2"/>
    <trip id="truck198" type="truck_truck" depart="1542.53" departLane="best" from="-684542202#1" to="840884157#6"/>
    <trip id="truck199" type="truck_truck" depart="1550.32" departLane="best" from="-840853045#0" to="1201246967#2"/>
    <trip id="truck200" type="truck_truck" depart="1558.11" departLane="best" from="-840884177" to="-201235403#1"/>
    <trip id="truck201" type="truck_truck" depart="1565.90" departLane="best" from="201874357#0" to="-201235407#1"/>
    <trip id="truck202" type="truck_truck" depart="1573.69" departLane="best" from="840884157#9" to="201235430#0"/>
    <trip id="truck203" type="truck_truck" depart="1581.48" departLane="best" from="-201231594#9" to="840884157#7"/>
    <trip id="truck204" type="truck_truck" depart="1589.27" departLane="best" from="201231602#15" to="-201768883#0"/>
    <trip id="truck205" type="truck_truck" depart="1597.06" departLane="best" from="-201231602#3" to="-1201246973#1"/>
    <trip id="truck206" type="truck_truck" depart="1604.85" departLane="best" from="-840884187" to="38448527#6"/>
    <trip id="truck207" type="truck_truck" depart="1612.64" departLane="best" from="-840793114#0" to="-1201246966#0"/>
    <trip id="truck208" type="truck_truck" depart="1620.43" departLane="best" from="-201874295#7" to="840793092#1"/>
    <trip id="truck209" type="truck_truck" depart="1628.22" departLane="best" from="1201246973#1" to="-840829966#0"/>
    <trip id="truck210" type="truck_truck" depart="1636.01" departLane="best" departSpeed="max" from="840848456#0" to="-1201246966#6"/>
    <trip id="truck211" type="truck_truck" depart="1643.80" departLane="best" from="-840829966#1" to="840811830#4"/>
    <trip id="truck212" type="truck_truck" depart="1651.59" departLane="best" from="-201874295#9" to="38448527#1"/>
    <trip id="truck213" type="truck_truck" depart="1659.38" departLane="best" from="-1201246966#5" to="-404099528#3"/>
    <trip id="truck214" type="truck_truck" depart="1667.17" departLane="best" from="-1201246963#4" to="-201231602#2"/>
    <trip id="truck215" type="truck_truck" depart="1674.97" departLane="best" from="1201246972#1" to="-840793115#1"/>
    <trip id="truck216" type="truck_truck" depart="1682.76" departLane="best" from="-1201246973#2" to="1201246972#4"/>
    <trip id="truck217" type="truck_truck" depart="1690.55" departLane="best" from="320687931#0" to="-1201246966#3"/>
    <trip id="truck218" type="truck_truck" depart="1698.34" departLane="best" from="201874295#8" to="201235430#4"/>
    <trip id="truck219" type="truck_truck" depart="1706.13" departLane="best" from="684542201#0" to="-840829966#1"/>
    <trip id="truck220" type="truck_truck" depart="1713.92" departLane="best" from="201235404#4" to="-404099528#3"/>
    <trip id="truck221" type="truck_truck" depart="1721.71" departLane="best" from="-840884172#2" to="-1201246964#1"/>
    <trip id="truck222" type="truck_truck" depart="1729.50" departLane="best" from="-1201246964#1" to="1201246966#3"/>
    <trip id="truck223" type="truck_truck" depart="1737.29" departLane="best" from="840829965#0" to="-840884172#1"/>
    <trip id="truck224" type="truck_truck" depart="1745.08" departLane="best" from="1201246969#0" to="840887391"/>
    <trip id="truck225" type="truck_truck" depart="1752.87" departLane="best" from="201874266#1" to="-840859789#0"/>
    <trip id="truck226" type="truck_truck" depart="1760.66" departLane="best" from="201235403#5" to="-201231602#22"/>
    <trip id="truck227" type="truck_truck" depart="1768.45" departLane="best" from="201235403#2" to="-840811827#0"/>
    <trip id="truck228" type="truck_truck" depart="1776.24" departLane="best" from="840811842" to="-1201246964#1"/>
    <trip id="truck229" type="truck_truck" depart="1784.03" departLane="best" departSpeed="max" from="840848456#0" to="840887391"/>
    <trip id="truck230" type="truck_truck" depart="1791.82" departLane="best" from="201874295#9" to="840884157#7"/>
    <trip id="truck231" type="truck_truck" depart="1799.61" departLane="best" from="840829965#0" to="-840884174"/>
    <trip id="truck233" type="truck_truck" depart="1815.19" departLane="best" from="-201874357#1" to="840811841#3"/>
    <trip id="truck234" type="truck_truck" depart="1822.99" departLane="best" from="-201231602#18" to="1201246969#3"/>
    <trip id="truck235" type="truck_truck" depart="1830.78" departLane="best" from="201231602#9" to="-1201246972#0"/>
    <trip id="truck236" type="truck_truck" depart="1838.57" departLane="best" from="840811842" to="-201231602#16"/>
    <trip id="truck237" type="truck_truck" depart="1846.36" departLane="best" from="-201231602#17" to="1078204934"/>
    <trip id="truck238" type="truck_truck" depart="1854.15" departLane="best" from="-201874266#1" to="-201874273"/>
    <trip id="truck239" type="truck_truck" depart="1861.94" departLane="best" from="-1201246962#0" to="38448527#9"/>
    <trip id="truck240" type="truck_truck" depart="1869.73" departLane="best" departSpeed="max" from="840848451#0" to="201235406#1"/>
    <trip id="truck241" type="truck_truck" depart="1877.52" departLane="best" from="-840793115#1" to="-201231594#2"/>
    <trip id="truck242" type="truck_truck" depart="1885.31" departLane="best" from="-201768897#1" to="840793114#1"/>