<?xml version="1.0" encoding="UTF-8"?>

<!-- generated on 2025-04-21 20:27:21 by Eclipse SUMO polyconvert Version 1.19.0
<configuration xmlns:xsi="http://www.w3.org/2001/XMLSchema-instance" xsi:noNamespaceSchemaLocation="http://sumo.dlr.de/xsd/polyconvertConfiguration.xsd">

    <input>
        <net-file value="osm.net.xml.gz"/>
        <osm-files value="osm_bbox.osm.xml.gz"/>
        <osm.keep-full-type value="true"/>
        <type-file value="${SUMO_HOME}/data/typemap/osmPolyconvert.typ.xml"/>
    </input>

    <output>
        <output-file value="osm.poly.xml.gz"/>
    </output>

    <report>
        <verbose value="true"/>
    </report>

</configuration>
-->

<additional xmlns:xsi="http://www.w3.org/2001/XMLSchema-instance" xsi:noNamespaceSchemaLocation="http://sumo.dlr.de/xsd/additional_file.xsd">
    <location netOffset="-445661.86,-1748898.63" convBoundary="-0.00,-0.00,2657.96,2489.00" origBoundary="74.492588,15.818266,74.517358,15.840809" projParameter="+proj=utm +zone=43 +ellps=WGS84 +datum=WGS84 +units=m +no_defs"/>

    <poly id="1201263624" type="leisure.playground" color="207,245,201" fill="1" layer="-2.00" shape="1335.162959,2138.746951 1318.910627,2148.950971 1332.370816,2153.509831 1341.027057,2159.772463 1357.345934,2150.541730 1372.149091,2138.814639 1362.094464,2129.867300 1354.592420,2136.267576 1348.108875,2129.557350 1335.162959,2138.746951"/>
    <poly id="1201263628" type="amenity.shelter" color="237,199,199" fill="1" layer="-1.00" shape="1062.261721,1992.548053 1064.322985,1994.777630 1068.391487,1994.513571 1070.699891,1992.583366 1070.689905,1988.368885 1068.178584,1986.007632 1064.805666,1986.081995 1062.059852,1988.699061 1062.261721,1992.548053"/>
    <poly id="1201263628#1" type="building.yes" color="255,230,230" fill="1" layer="-1.00" shape="1062.261721,1992.548053 1064.322985,1994.777630 1068.391487,1994.513571 1070.699891,1992.583366 1070.689905,1988.368885 1068.178584,1986.007632 1064.805666,1986.081995 1062.059852,1988.699061 1062.261721,1992.548053"/>
    <poly id="1201263635" type="building.school" color="255,230,230" fill="1" layer="-1.00" shape="945.809959,1663.473413 953.405959,1656.032982 978.170036,1681.239110 1010.841628,1649.768520 1019.470749,1658.022203 979.065314,1697.508736 945.809959,1663.473413"/>
    <poly id="1201577506" type="building.house" color="255,230,230" fill="1" layer="-1.00" shape="1224.238650,2148.444387 1232.603280,2140.039862 1218.435604,2126.113478 1210.081656,2134.506922 1224.238650,2148.444387"/>
    <poly id="1201577507" type="building.apartments" color="255,230,230" fill="1" layer="-1.00" shape="1191.438886,2111.918764 1211.063495,2092.326365 1227.333750,2107.840660 1207.132603,2128.153418 1191.438886,2111.918764"/>
    <poly id="1201577508" type="building.house" color="255,230,230" fill="1" layer="-1.00" shape="1220.379905,2124.173088 1231.413891,2135.175526 1242.962411,2123.743642 1231.928399,2112.730136 1220.379905,2124.173088"/>
    <poly id="1201577509" type="building.apartments" color="255,230,230" fill="1" layer="-1.00" shape="1241.159533,2094.887943 1260.132022,2075.728536 1276.929119,2092.159742 1257.956630,2111.319136 1241.159533,2094.887943"/>
    <poly id="1201577510" type="building.apartments" color="255,230,230" fill="1" layer="-1.00" shape="1177.934748,2152.193137 1197.595173,2134.182462 1216.478925,2154.535593 1196.818530,2172.557313 1177.934748,2152.193137"/>
    <poly id="1201577511" type="building.apartments" color="255,230,230" fill="1" layer="-1.00" shape="1146.459678,2118.905521 1167.337459,2099.464981 1186.821679,2120.137457 1165.933194,2139.578005 1146.459678,2118.905521"/>
    <poly id="1201577512" type="building.apartments" color="255,230,230" fill="1" layer="-1.00" shape="1128.372762,2100.464234 1148.565540,2081.158038 1165.085798,2098.220336 1144.882314,2117.526542 1128.372762,2100.464234"/>
    <poly id="1201577513" type="building.house" color="255,230,230" fill="1" layer="-1.00" shape="1196.309313,2079.452242 1182.515315,2065.082529 1173.700802,2073.432828 1181.429724,2081.478526 1173.309702,2089.174543 1167.351990,2082.971961 1162.170141,2087.884548 1181.760803,2108.280226 1187.038790,2103.267861 1176.164603,2091.933215 1184.028204,2084.481162 1187.345227,2087.946691 1196.309313,2079.452242"/>
    <poly id="1201577514" type="building.house" color="255,230,230" fill="1" layer="-1.00" shape="1154.551623,2054.086973 1164.081018,2044.650930 1173.837768,2054.373206 1164.297691,2063.820332 1154.551623,2054.086973"/>
    <poly id="1201577515" type="building.house" color="255,230,230" fill="1" layer="-1.00" shape="1148.776114,2052.485630 1162.676046,2066.357296 1156.554599,2072.422523 1142.643959,2058.550886 1148.776114,2052.485630"/>
    <poly id="1201577516" type="building.apartments" color="255,230,230" fill="1" layer="-1.00" shape="1127.622534,2032.325974 1141.448911,2019.627613 1155.179630,2034.384611 1141.353255,2047.082963 1127.622534,2032.325974"/>
    <poly id="1201577517" type="building.house" color="255,230,230" fill="1" layer="-1.00" shape="1112.300313,2019.276261 1126.723755,2005.481370 1139.057641,2018.217375 1124.634201,2032.012258 1112.300313,2019.276261"/>
    <poly id="1201577518" type="amenity.pharmacy" color="237,199,199" fill="1" layer="-1.00" shape="1104.167173,2025.954658 1108.087585,2021.941042 1121.675217,2035.050166 1117.744098,2039.063805 1104.167173,2025.954658"/>
    <poly id="1201577518#1" type="building.yes" color="255,230,230" fill="1" layer="-1.00" shape="1104.167173,2025.954658 1108.087585,2021.941042 1121.675217,2035.050166 1117.744098,2039.063805 1104.167173,2025.954658"/>
    <poly id="1201577519" type="building.house" color="255,230,230" fill="1" layer="-1.00" shape="1078.663125,2049.786646 1088.182255,2040.549704 1101.685717,2054.289533 1092.166587,2063.526469 1078.663125,2049.786646"/>
    <poly id="1201577520" type="building.apartments" color="255,230,230" fill="1" layer="-1.00" shape="1094.259547,2065.578987 1113.680478,2045.909553 1122.352768,2054.384403 1102.931811,2074.042769 1094.259547,2065.578987"/>
    <poly id="1201577521" type="building.apartments" color="255,230,230" fill="1" layer="-1.00" shape="1104.136073,2076.130577 1124.134902,2056.315981 1132.227977,2064.382924 1112.229148,2084.197513 1104.136073,2076.130577"/>
    <poly id="1201577522" type="building.house" color="255,230,230" fill="1" layer="-1.00" shape="1113.571252,2085.709787 1127.256627,2072.270617 1132.741572,2077.788482 1119.056197,2091.227649 1113.571252,2085.709787"/>
    <poly id="1201577523" type="building.house" color="255,230,230" fill="1" layer="-1.00" shape="1121.127893,2093.346590 1129.951751,2084.432101 1136.026635,2090.368915 1127.192068,2099.283427 1121.127893,2093.346590"/>
    <poly id="1201589570" type="building.house" color="255,230,230" fill="1" layer="-1.00" shape="1234.601194,2088.266419 1241.694928,2081.280797 1231.981000,2071.536268 1224.897974,2078.521868 1234.601194,2088.266419"/>
    <poly id="1201589571" type="building.retail" color="255,230,230" fill="1" layer="-1.00" shape="1235.126885,2088.685522 1248.758840,2075.268677 1253.352838,2079.881616 1239.731591,2093.298432 1235.126885,2088.685522"/>
    <poly id="1201589572" type="building.house" color="255,230,230" fill="1" layer="-1.00" shape="1241.066556,2064.590187 1247.659002,2058.446440 1259.005919,2070.454767 1252.413499,2076.609573 1241.066556,2064.590187"/>
    <poly id="1201589573" type="building.house" color="255,230,230" fill="1" layer="-1.00" shape="1204.266494,2057.221554 1218.070827,2044.246751 1208.151824,2033.827953 1194.347490,2046.802762 1204.266494,2057.221554"/>
    <poly id="1201589574" type="building.house" color="255,230,230" fill="1" layer="-1.00" shape="1180.379086,2040.198771 1203.872730,2017.477823 1193.353293,2006.739661 1169.859648,2029.460620 1180.379086,2040.198771"/>
    <poly id="1201589575" type="building.apartments" color="255,230,230" fill="1" layer="-1.00" shape="1153.808076,2006.844239 1173.454191,1987.262822 1187.547102,2001.222541 1167.890280,2020.803971 1153.808076,2006.844239"/>
    <poly id="1201589576" type="building.house" color="255,230,230" fill="1" layer="-1.00" shape="1151.177536,2003.874867 1159.340179,1996.079187 1145.449682,1981.687601 1137.276304,1989.472249 1151.177536,2003.874867"/>
    <poly id="1201589577" type="building.house" color="255,230,230" fill="1" layer="-1.00" shape="1158.193135,1968.383422 1161.697072,1964.846454 1176.498157,1979.401822 1172.983485,1982.927752 1158.193135,1968.383422"/>
    <poly id="1201589578" type="amenity.pharmacy" color="237,199,199" fill="1" layer="-1.00" shape="1161.782398,1964.702450 1164.453060,1961.997080 1179.382616,1976.541085 1176.711954,1979.246453 1161.782398,1964.702450"/>
    <poly id="1201589578#1" type="building.yes" color="255,230,230" fill="1" layer="-1.00" shape="1161.782398,1964.702450 1164.453060,1961.997080 1179.382616,1976.541085 1176.711954,1979.246453 1161.782398,1964.702450"/>
    <poly id="1201589579" type="building.house" color="255,230,230" fill="1" layer="-1.00" shape="1183.084549,1948.048474 1195.170603,1960.132455 1183.258726,1971.897071 1171.172698,1959.824158 1183.084549,1948.048474"/>
    <poly id="1201589580" type="building.house" color="255,230,230" fill="1" layer="-1.00" shape="1203.335719,1957.900818 1179.488719,1980.655784 1185.940180,1987.343916 1209.808595,1964.588906 1203.335719,1957.900818"/>
    <poly id="1201589581" type="building.retail" color="255,230,230" fill="1" layer="-1.00" shape="1209.756178,1965.064683 1216.454158,1971.851796 1193.089028,1994.605609 1186.401756,1987.818477 1209.756178,1965.064683"/>
    <poly id="1201589582" type="building.house" color="255,230,230" fill="1" layer="-1.00" shape="1214.372754,1974.688507 1217.689422,1977.999178 1203.363118,1992.147752 1200.046450,1988.837083 1214.372754,1974.688507"/>
    <poly id="1201589583" type="building.yes" color="255,230,230" fill="1" layer="-1.00" shape="1199.384897,1989.834199 1205.148255,1995.351424 1199.625519,2001.028063 1193.872869,1995.510815 1199.384897,1989.834199"/>
    <poly id="1201589584" type="building.house" color="255,230,230" fill="1" layer="-1.00" shape="1218.419747,1978.915573 1225.685436,1985.778779 1216.627228,1995.246865 1209.361539,1988.383662 1218.419747,1978.915573"/>
    <poly id="1201589585" type="building.apartments" color="255,230,230" fill="1" layer="-1.00" shape="1225.862934,1988.388919 1234.276247,1996.034797 1217.795730,2013.927302 1202.267560,1999.805032 1209.637321,1991.801073 1216.762887,1998.277448 1225.862934,1988.388919"/>
    <poly id="1201589586" type="building.yes" color="255,230,230" fill="1" layer="-1.00" shape="1225.870884,2014.417061 1238.892411,2000.957408 1250.826898,2012.367012 1237.805371,2025.826659 1225.870884,2014.417061"/>
    <poly id="1201589587" type="building.house" color="255,230,230" fill="1" layer="-1.00" shape="1256.285317,2015.727939 1261.920627,2021.444591 1246.696408,2036.258959 1241.061071,2030.531250 1256.285317,2015.727939"/>
    <poly id="1201589588" type="building.yes" color="255,230,230" fill="1" layer="-1.00" shape="1217.099900,2023.076966 1222.206166,2017.888029 1235.503149,2030.378452 1230.022306,2035.656765 1217.099900,2023.076966"/>
    <poly id="1201589589" type="building.yes" color="255,230,230" fill="1" layer="-1.00" shape="1231.771131,2037.090653 1237.283968,2031.756957 1252.032620,2046.821335 1246.509102,2052.166115 1231.771131,2037.090653"/>
    <poly id="1201589590" type="building.house" color="255,230,230" fill="1" layer="-1.00" shape="1262.371492,2021.919179 1268.006826,2027.646893 1252.782607,2042.461258 1247.136565,2036.733572 1262.371492,2021.919179"/>
    <poly id="1201589591" type="building.house" color="255,230,230" fill="1" layer="-1.00" shape="1268.510944,2027.999677 1274.146248,2033.716331 1258.922030,2048.530692 1253.275991,2042.803005 1268.510944,2027.999677"/>
    <poly id="1201589592" type="building.house" color="255,230,230" fill="1" layer="-1.00" shape="1275.713920,2035.526749 1284.516241,2044.676116 1269.975020,2058.504367 1265.230377,2053.582053 1269.493367,2049.523410 1265.435688,2045.296361 1275.713920,2035.526749"/>
    <poly id="1201589593" type="building.yes" color="255,230,230" fill="1" layer="-1.00" shape="1259.577054,2049.303464 1263.839757,2045.123142 1268.337201,2049.658880 1264.074499,2053.839201 1259.577054,2049.303464"/>
    <poly id="1201589594" type="building.house" color="255,230,230" fill="1" layer="-1.00" shape="1283.760038,2091.778584 1290.565450,2085.125509 1274.636474,2069.013033 1267.820380,2075.677199 1283.760038,2091.778584"/>
    <poly id="1201589595" type="building.house" color="255,230,230" fill="1" layer="-1.00" shape="1274.002608,2063.594300 1288.628397,2049.301261 1304.847148,2065.689606 1290.221360,2079.982635 1274.002608,2063.594300"/>
    <poly id="1201847954" type="building.yes" color="255,230,230" fill="1" layer="-1.00" shape="1033.801103,1934.619050 1046.055141,1922.665493 1061.651672,1938.457813 1049.386900,1950.400325 1033.801103,1934.619050"/>
    <poly id="1201847954#1" type="sport.badminton" color="79,230,125" fill="1" layer="-2.00" shape="1033.801103,1934.619050 1046.055141,1922.665493 1061.651672,1938.457813 1049.386900,1950.400325 1033.801103,1934.619050"/>
    <poly id="1201847955" type="building.yes" color="255,230,230" fill="1" layer="-1.00" shape="1017.854058,1951.647628 1023.613208,1946.335418 1027.872183,1945.108532 1031.567612,1945.564361 1035.269098,1948.575428 1036.508565,1951.957368 1034.626171,1957.426308 1028.877704,1962.727428 1031.142901,1965.155629 1025.276908,1970.567646 1008.765664,1952.874909 1014.268366,1947.795601 1017.854058,1951.647628"/>
    <poly id="1201847957" type="amenity.toilets" color="237,199,199" fill="1" layer="-1.00" shape="1035.166773,1959.615241 1042.303584,1952.740071 1045.802950,1956.315765 1038.666165,1963.201996 1035.166773,1959.615241"/>
    <poly id="1201847957#1" type="building.yes" color="255,230,230" fill="1" layer="-1.00" shape="1035.166773,1959.615241 1042.303584,1952.740071 1045.802950,1956.315765 1038.666165,1963.201996 1035.166773,1959.615241"/>
    <poly id="1201847958" type="amenity.parking" color="184,184,179" fill="1" layer="-1.00" shape="1033.367396,1918.801855 1011.145288,1895.193588 1017.876617,1888.916705 1040.109484,1912.547076 1033.367396,1918.801855"/>
    <poly id="1201852265" type="building.yes" color="255,230,230" fill="1" layer="-1.00" shape="1107.734004,1958.536250 1128.332944,1938.864045 1133.968568,1944.691281 1113.369655,1964.374543 1107.734004,1958.536250"/>
    <poly id="1201852266" type="building.yes" color="255,230,230" fill="1" layer="-1.00" shape="1114.474091,1965.002445 1134.441770,1945.552974 1138.069856,1949.227932 1118.102203,1968.688462 1114.474091,1965.002445"/>
    <poly id="1201852267" type="building.yes" color="255,230,230" fill="1" layer="-1.00" shape="1129.692196,1983.815549 1152.290578,1962.877600 1144.002922,1954.047853 1121.404513,1974.974749 1129.692196,1983.815549"/>
    <poly id="1201852268" type="building.house" color="255,230,230" fill="1" layer="-1.00" shape="1124.610237,1963.075840 1128.571243,1967.159292 1142.471128,1953.830243 1138.499413,1949.746815 1124.610237,1963.075840"/>
    <poly id="1201852269" type="building.house" color="255,230,230" fill="1" layer="-1.00" shape="1099.486406,1944.020714 1116.495147,1927.631261 1126.832304,1938.237080 1109.823564,1954.626525 1099.486406,1944.020714"/>
    <poly id="1201852270" type="building.retail" color="255,230,230" fill="1" layer="-1.00" shape="1085.725751,1930.226187 1092.252822,1923.606897 1104.713856,1935.745251 1098.176077,1942.364563 1085.725751,1930.226187"/>
    <poly id="1201852271" type="building.apartments" color="255,230,230" fill="1" layer="-1.00" shape="1062.504609,1909.772820 1080.977128,1892.008222 1097.497337,1908.970918 1079.024820,1926.735503 1062.504609,1909.772820"/>
    <poly id="1201852272" type="building.house" color="255,230,230" fill="1" layer="-1.00" shape="1094.964133,1915.459069 1099.536716,1911.001440 1114.231632,1925.910995 1105.674058,1934.249649 1097.151212,1925.597463 1101.136204,1921.716434 1094.964133,1915.459069"/>
    <poly id="1202229861" type="building.house" color="255,230,230" fill="1" layer="-1.00" shape="1048.051584,1893.026483 1057.250468,1884.188512 1069.466249,1896.747773 1060.267367,1905.585740 1048.051584,1893.026483"/>
    <poly id="1202229862" type="building.apartments" color="255,230,230" fill="1" layer="-1.00" shape="1026.409193,1879.073686 1041.388168,1864.713280 1057.318190,1881.135324 1042.339191,1895.484658 1026.409193,1879.073686"/>
    <poly id="1202229863" type="building.house" color="255,230,230" fill="1" layer="-1.00" shape="1042.913782,1862.320338 1050.039866,1855.423074 1067.075116,1872.804872 1059.949032,1879.702131 1042.913782,1862.320338"/>
    <poly id="1202229864" type="building.apartments" color="255,230,230" fill="1" layer="-1.00" shape="1004.471807,1853.628509 1012.773034,1845.566968 1028.498638,1861.569132 1020.197411,1869.630668 1004.471807,1853.628509"/>
    <poly id="1202229865" type="building.house" color="255,230,230" fill="1" layer="-1.00" shape="991.636566,1837.265529 1001.454904,1827.740240 1011.877853,1838.356866 1002.070225,1847.882125 991.636566,1837.265529"/>
    <poly id="1202229866" type="building.house" color="255,230,230" fill="1" layer="-1.00" shape="990.001590,1834.183195 1000.290278,1824.313878 992.089070,1815.860077 981.789674,1825.729424 990.001590,1834.183195"/>
    <poly id="1202229868" type="building.yes" color="255,230,230" fill="1" layer="-1.00" shape="995.356480,1811.925424 1002.087778,1805.626413 1010.590076,1814.610464 1003.858778,1820.909473 995.356480,1811.925424"/>
    <poly id="1202229869" type="building.yes" color="255,230,230" fill="1" layer="-1.00" shape="989.064591,1804.838744 995.442989,1798.739679 1000.960576,1804.434424 994.582178,1810.533487 989.064591,1804.838744"/>
    <poly id="1202229872" type="building.yes" color="255,230,230" fill="1" layer="-1.00" shape="1016.189031,1832.041476 1021.937294,1826.640800 1014.079179,1818.363165 1008.320207,1823.763869 1016.189031,1832.041476"/>
    <poly id="1202229873" type="building.yes" color="255,230,230" fill="1" layer="-1.00" shape="1034.508517,1826.500376 1048.721293,1841.256170 1043.934803,1845.824933 1029.722027,1831.069142 1034.508517,1826.500376"/>
    <poly id="1202229874" type="building.yes" color="255,230,230" fill="1" layer="-1.00" shape="1042.771039,1847.276773 1026.831560,1831.396785 1013.477548,1844.625053 1029.417028,1860.505032 1042.771039,1847.276773"/>
    <poly id="1202695481" type="leisure.pitch" color="207,245,201" fill="1" layer="-2.00" shape="1003.765565,1898.983131 984.661826,1916.959465 1009.438213,1942.973097 1028.552630,1924.985697 1003.765565,1898.983131"/>
    <poly id="1202695481#1" type="sport.cricket" color="79,230,125" fill="1" layer="-2.00" shape="1003.765565,1898.983131 984.661826,1916.959465 1009.438213,1942.973097 1028.552630,1924.985697 1003.765565,1898.983131"/>
    <poly id="1202702363" type="building.house" color="255,230,230" fill="1" layer="-1.00" shape="978.967205,1759.952228 992.652182,1746.291750 1000.348131,1753.906061 982.657051,1771.580373 977.826959,1766.802122 981.843797,1762.799318 978.967205,1759.952228"/>
    <poly id="1202702364" type="building.house" color="255,230,230" fill="1" layer="-1.00" shape="980.260079,1776.807181 1002.170271,1754.631810 1011.089529,1763.327269 989.190071,1785.513667 980.260079,1776.807181"/>
    <poly id="1202702365" type="building.house" color="255,230,230" fill="1" layer="-1.00" shape="1012.367435,1764.850752 1018.699878,1770.974974 1000.283286,1789.768225 993.950869,1783.655069 1012.367435,1764.850752"/>
    <poly id="1202702366" type="building.house" color="255,230,230" fill="1" layer="-1.00" shape="1024.215361,1780.297965 1033.338529,1789.192059 1022.484948,1800.190992 1010.013035,1788.030583 1014.243383,1783.750737 1017.592128,1787.017056 1024.215361,1780.297965"/>
    <poly id="1202702367" type="building.house" color="255,230,230" fill="1" layer="-1.00" shape="1038.541784,1797.807845 1047.396210,1806.271175 1038.572742,1815.384802 1029.718316,1806.921474 1038.541784,1797.807845"/>
    <poly id="1202702368" type="amenity.restaurant" color="237,199,199" fill="1" layer="-1.00" shape="1052.877677,1837.396850 1057.375467,1833.005761 1053.318024,1828.911488 1062.057163,1820.362213 1054.929792,1813.166879 1041.692862,1826.107248 1052.877677,1837.396850"/>
    <poly id="1202702368#1" type="building.yes" color="255,230,230" fill="1" layer="-1.00" shape="1052.877677,1837.396850 1057.375467,1833.005761 1053.318024,1828.911488 1062.057163,1820.362213 1054.929792,1813.166879 1041.692862,1826.107248 1052.877677,1837.396850"/>
    <poly id="1202702369" type="building.apartments" color="255,230,230" fill="1" layer="-1.00" shape="1055.088019,1852.822674 1075.909896,1832.309207 1122.344152,1878.835351 1101.522305,1899.359838 1055.088019,1852.822674"/>
    <poly id="1202702370" type="building.apartments" color="255,230,230" fill="1" layer="-1.00" shape="1124.738422,1881.506614 1134.914631,1891.969015 1114.743315,1911.363658 1104.556422,1900.912352 1124.738422,1881.506614"/>
    <poly id="1202702371" type="building.apartments" color="255,230,230" fill="1" layer="-1.00" shape="1135.390321,1893.881562 1142.303477,1901.077428 1127.099697,1915.482545 1120.197249,1908.286659 1135.390321,1893.881562"/>
    <poly id="1202702372" type="building.hospital" color="255,230,230" fill="1" layer="-1.00" shape="1145.265618,1903.891151 1159.166399,1918.083604 1145.309472,1931.478909 1131.408716,1917.297526 1145.265618,1903.891151"/>
    <poly id="1202702373" type="building.house" color="255,230,230" fill="1" layer="-1.00" shape="1162.200065,1919.448078 1168.597327,1925.848730 1155.649157,1938.633486 1149.251869,1932.221776 1162.200065,1919.448078"/>
    <poly id="1202702374" type="building.retail" color="255,230,230" fill="1" layer="-1.00" shape="1154.649655,1959.730498 1166.840015,1947.998394 1161.687552,1942.712029 1149.486456,1954.433100 1154.649655,1959.730498"/>
    <poly id="1204095502" type="building.house" color="255,230,230" fill="1" layer="-1.00" shape="984.897986,1709.618511 997.696571,1696.955693 1009.900858,1709.127793 997.102300,1721.801665 984.897986,1709.618511"/>
    <poly id="1204095503" type="building.apartments" color="255,230,230" fill="1" layer="-1.00" shape="999.154198,1724.584344 1017.701076,1706.520859 1032.181486,1721.209638 1013.634610,1739.273112 999.154198,1724.584344"/>
    <poly id="1204095504" type="building.house" color="255,230,230" fill="1" layer="-1.00" shape="1021.135417,1745.881279 1031.904879,1735.524124 1042.370976,1746.262341 1031.590807,1756.619517 1021.135417,1745.881279"/>
    <poly id="1204095505" type="building.yes" color="255,230,230" fill="1" layer="-1.00" shape="996.804765,1691.172544 1002.178637,1685.927616 1016.154495,1700.075559 1010.780649,1705.331546 996.804765,1691.172544"/>
    <poly id="1204095506" type="building.yes" color="255,230,230" fill="1" layer="-1.00" shape="1032.282624,1727.735797 1036.331446,1723.666558 1049.490545,1736.599671 1045.441724,1740.668908 1032.282624,1727.735797"/>
    <poly id="1204095507" type="building.yes" color="255,230,230" fill="1" layer="-1.00" shape="1047.470860,1742.887499 1051.765552,1738.640693 1059.644179,1746.531133 1055.349487,1750.777938 1047.470860,1742.887499"/>
    <poly id="1204095508" type="building.yes" color="255,230,230" fill="1" layer="-1.00" shape="1037.651859,1765.708921 1050.972760,1752.038281 1058.421348,1759.210730 1045.100421,1772.870304 1037.651859,1765.708921"/>
    <poly id="1204095509" type="building.yes" color="255,230,230" fill="1" layer="-1.00" shape="1046.839015,1774.492252 1058.985963,1762.494715 1067.208030,1770.716194 1055.061109,1782.724789 1046.839015,1774.492252"/>
    <poly id="1204095510" type="building.yes" color="255,230,230" fill="1" layer="-1.00" shape="1061.260667,1759.889827 1066.965419,1754.190601 1085.727539,1772.740862 1080.022813,1778.451145 1061.260667,1759.889827"/>
    <poly id="1204095511" type="building.apartments" color="255,230,230" fill="1" layer="-1.00" shape="1063.509025,1795.879247 1083.358738,1776.308337 1098.632887,1791.592609 1078.783201,1811.174567 1063.509025,1795.879247"/>
    <poly id="1204356639" type="building.apartments" color="255,230,230" fill="1" layer="-1.00" shape="1090.415524,1821.522884 1110.264346,1801.575902 1119.655962,1810.801245 1099.807141,1830.748219 1090.415524,1821.522884"/>
    <poly id="1204356640" type="building.house" color="255,230,230" fill="1" layer="-1.00" shape="1100.397116,1831.178228 1114.861571,1816.564673 1118.317640,1819.941370 1103.842477,1834.554948 1100.397116,1831.178228"/>
    <poly id="1204356641" type="building.apartments" color="255,230,230" fill="1" layer="-1.00" shape="1105.076152,1835.492271 1124.040691,1817.450006 1131.758929,1825.462528 1112.794391,1843.504787 1105.076152,1835.492271"/>
    <poly id="1204356642" type="building.retail" color="255,230,230" fill="1" layer="-1.00" shape="1120.843428,1851.029808 1140.823731,1832.343575 1148.295380,1840.235007 1128.315078,1858.921235 1120.843428,1851.029808"/>
    <poly id="1204356643" type="building.apartments" color="255,230,230" fill="1" layer="-1.00" shape="1128.777339,1859.683398 1148.672498,1841.218606 1154.802368,1847.741565 1134.896475,1866.195315 1128.777339,1859.683398"/>
    <poly id="1204356644" type="building.apartments" color="255,230,230" fill="1" layer="-1.00" shape="1136.753422,1868.060347 1156.411429,1848.932422 1174.315848,1867.108685 1154.647135,1886.236620 1136.753422,1868.060347"/>
    <poly id="1204356645" type="building.house" color="255,230,230" fill="1" layer="-1.00" shape="1156.010376,1887.627168 1173.509687,1870.351666 1180.261194,1877.116520 1162.761857,1894.380955 1156.010376,1887.627168"/>
    <poly id="1204356646" type="building.yes" color="255,230,230" fill="1" layer="-1.00" shape="1173.409848,1909.643032 1188.431882,1895.348994 1193.520075,1900.624455 1178.498041,1914.918489 1173.409848,1909.643032"/>
    <poly id="1204356647" type="building.yes" color="255,230,230" fill="1" layer="-1.00" shape="1179.077958,1915.625066 1186.535183,1908.373089 1195.444436,1917.422616 1187.987212,1924.674590 1179.077958,1915.625066"/>
    <poly id="1204356648" type="building.yes" color="255,230,230" fill="1" layer="-1.00" shape="1187.091173,1908.017800 1195.764741,1917.023638 1201.897473,1911.179631 1193.223931,1902.184853 1187.091173,1908.017800"/>
    <poly id="1204356649" type="building.yes" color="255,230,230" fill="1" layer="-1.00" shape="1184.278505,1886.896619 1189.898268,1881.485228 1199.677223,1891.517191 1194.057460,1896.928579 1184.278505,1886.896619"/>
    <poly id="1204356650" type="building.yes" color="255,230,230" fill="1" layer="-1.00" shape="1205.092953,1908.517273 1210.574084,1903.349572 1200.708793,1893.030205 1195.238371,1898.197883 1205.092953,1908.517273"/>
    <poly id="1204357930" type="building.house" color="255,230,230" fill="1" layer="-1.00" shape="1201.802737,1929.995792 1210.167730,1921.712940 1222.532848,1934.072818 1214.157147,1942.355691 1201.802737,1929.995792"/>
    <poly id="1204357931" type="building.apartments" color="255,230,230" fill="1" layer="-1.00" shape="1213.300456,1951.406180 1234.293344,1930.737591 1248.225679,1944.719850 1227.243501,1965.388400 1213.300456,1951.406180"/>
    <poly id="1204357932" type="building.apartments" color="255,230,230" fill="1" layer="-1.00" shape="1231.212818,1968.465236 1252.781388,1946.711259 1267.517860,1961.134098 1245.949317,1982.899122 1231.212818,1968.465236"/>
    <poly id="1204357933" type="building.yes" color="255,230,230" fill="1" layer="-1.00" shape="1247.989016,1985.073459 1253.982640,1979.274041 1257.471233,1982.838731 1261.776833,1978.680431 1269.537617,1986.615466 1263.768341,1992.193116 1267.106676,1995.614360 1262.587410,1999.983335 1247.989016,1985.073459"/>
    <poly id="1204357934" type="building.apartments" color="255,230,230" fill="1" layer="-1.00" shape="1266.012924,2004.045951 1286.472775,1984.385282 1300.094586,1998.401490 1279.634712,2018.051084 1266.012924,2004.045951"/>
    <poly id="1204357935" type="building.apartments" color="255,230,230" fill="1" layer="-1.00" shape="1283.048259,2021.582769 1304.983093,2000.757159 1337.605444,2034.717049 1315.670588,2055.531567 1283.048259,2021.582769"/>
    <poly id="1204364927" type="building.yes" color="255,230,230" fill="1" layer="-1.00" shape="1323.983532,2061.507398 1335.884802,2049.776067 1340.178202,2054.068943 1328.266224,2065.800297 1323.983532,2061.507398"/>
    <poly id="1204364928" type="building.yes" color="255,230,230" fill="1" layer="-1.00" shape="1330.411372,2067.288567 1339.087311,2059.182016 1353.193023,2074.093110 1344.506402,2082.210743 1330.411372,2067.288567"/>
    <poly id="1204364929" type="building.yes" color="255,230,230" fill="1" layer="-1.00" shape="1345.956510,2084.120997 1354.931650,2075.748265 1361.608788,2082.812012 1352.633649,2091.184740 1345.956510,2084.120997"/>
    <poly id="1204364930" type="building.yes" color="255,230,230" fill="1" layer="-1.00" shape="1353.868837,2092.774712 1363.164855,2084.246364 1375.102622,2097.094044 1365.806605,2105.622387 1353.868837,2092.774712"/>
    <poly id="1204364931" type="building.apartments" color="255,230,230" fill="1" layer="-1.00" shape="1371.564345,2113.329881 1390.570588,2094.823146 1404.717772,2109.181089 1385.722214,2127.676725 1371.564345,2113.329881"/>
    <poly id="1204364932" type="building.yes" color="255,230,230" fill="1" layer="-1.00" shape="1404.873315,2147.951947 1418.762586,2134.645218 1411.173522,2126.831408 1397.294984,2140.149178 1404.873315,2147.951947"/>
    <poly id="1204364933" type="building.yes" color="255,230,230" fill="1" layer="-1.00" shape="1420.376202,2133.236585 1426.711681,2127.093495 1413.788084,2113.938383 1392.709002,2134.374714 1396.326332,2138.060800 1411.069909,2123.756502 1420.376202,2133.236585"/>